<?xml version="1.0" encoding="UTF-8"?>
<routes>
    <vType id="car" accel="1.0" decel="4.5" sigma="0.5" length="5" maxSpeed="25"/>
    <flow id="f1" from="40668087#1" to="542428845#0" type="car" begin="0" end="18000" vehsPerHour="15"/>
    <flow id="f2" from="40668087#1" to="337277957#0" type="car" begin="0" end="18000" vehsPerHour="52"/>
    <flow id="f3" from="40668087#1" to="1053072563" type="car" begin="0" end="18000" vehsPerHour="15"/>
    <flow id="f4" from="40668087#1" to="337277973#1" type="car" begin="0" end="18000" vehsPerHour="52"/>
    <flow id="f5" from="40668087#1" to="337277984#0" type="car" begin="0" end="18000" vehsPerHour="52"/>
    <flow id="f6" from="40668087#1" to="337277970#1" type="car" begin="0" end="18000" vehsPerHour="52"/>
    <flow id="f7" from="40668087#1" to="337277951#1" type="car" begin="0" end="18000" vehsPerHour="52"/>
    <flow id="f8" from="49217102" to="337277951#3" type="car" begin="0" end="18000" vehsPerHour="52"/>
    <flow id="f9" from="49217102" to="1053072563" type="car" begin="0" end="18000" vehsPerHour="52"/>
    <flow id="f10" from="49217102" to="337277973#1" type="car" begin="0" end="18000" vehsPerHour="52"/>
    <flow id="f11" from="49217102" to="337277984#0" type="car" begin="0" end="18000" vehsPerHour="52"/>
    <flow id="f12" from="49217102" to="542428845#0" type="car" begin="0" end="18000" vehsPerHour="52"/>
    <flow id="f13" from="42143912#5" to="337277957#0" type="car" begin="0" end="18000" vehsPerHour="52"/>
    <flow id="f14" from="42143912#5" to="542428845#0" type="car" begin="0" end="18000" vehsPerHour="52"/>
    <flow id="f15" from="42143912#5" to="1053072563" type="car" begin="0" end="18000" vehsPerHour="52"/>
    <flow id="f16" from="42143912#5" to="337277973#1" type="car" begin="0" end="18000" vehsPerHour="52"/>
    <flow id="f17" from="567060342#0" to="337277984#0" type="car" begin="0" end="18000" vehsPerHour="52"/>
    <flow id="f18" from="567060342#0" to="542428845#0" type="car" begin="0" end="18000" vehsPerHour="52"/>
    <flow id="f19" from="567060342#0" to="337277957#0" type="car" begin="0" end="18000" vehsPerHour="52"/>
    <flow id="f20" from="40668087#1" to="542428845#0" type="car" begin="18000" end="28000" vehsPerHour="23"/>
    <flow id="f21" from="40668087#1" to="337277957#0" type="car" begin="18000" end="28000" vehsPerHour="78"/>
    <flow id="f22" from="40668087#1" to="1053072563" type="car" begin="18000" end="28000" vehsPerHour="23"/>
    <flow id="f23" from="40668087#1" to="337277973#1" type="car" begin="18000" end="28000" vehsPerHour="78"/>
    <flow id="f24" from="40668087#1" to="337277984#0" type="car" begin="18000" end="28000" vehsPerHour="78"/>
    <flow id="f25" from="40668087#1" to="337277970#1" type="car" begin="18000" end="28000" vehsPerHour="78"/>
    <flow id="f26" from="40668087#1" to="337277951#1" type="car" begin="18000" end="28000" vehsPerHour="78"/>
    <flow id="f27" from="49217102" to="337277951#3" type="car" begin="18000" end="28000" vehsPerHour="78"/>
    <flow id="f28" from="49217102" to="1053072563" type="car" begin="18000" end="28000" vehsPerHour="78"/>
    <flow id="f29" from="49217102" to="337277973#1" type="car" begin="18000" end="28000" vehsPerHour="78"/>
    <flow id="f30" from="49217102" to="337277984#0" type="car" begin="18000" end="28000" vehsPerHour="78"/>
    <flow id="f31" from="49217102" to="542428845#0" type="car" begin="18000" end="28000" vehsPerHour="78"/>
    <flow id="f32" from="42143912#5" to="337277957#0" type="car" begin="18000" end="28000" vehsPerHour="78"/>
    <flow id="f33" from="42143912#5" to="542428845#0" type="car" begin="18000" end="28000" vehsPerHour="78"/>
    <flow id="f34" from="42143912#5" to="1053072563" type="car" begin="18000" end="28000" vehsPerHour="78"/>
    <flow id="f35" from="42143912#5" to="337277973#1" type="car" begin="18000" end="28000" vehsPerHour="78"/>
    <flow id="f36" from="567060342#0" to="337277984#0" type="car" begin="18000" end="28000" vehsPerHour="78"/>
    <flow id="f37" from="567060342#0" to="542428845#0" type="car" begin="18000" end="28000" vehsPerHour="78"/>
    <flow id="f38" from="567060342#0" to="337277957#0" type="car" begin="18000" end="28000" vehsPerHour="78"/>
    <flow id="f39" from="40668087#1" to="542428845#0" type="car" begin="28000" end="38000" vehsPerHour="19"/>
    <flow id="f40" from="40668087#1" to="337277957#0" type="car" begin="28000" end="38000" vehsPerHour="65"/>
    <flow id="f41" from="40668087#1" to="1053072563" type="car" begin="28000" end="38000" vehsPerHour="19"/>
    <flow id="f42" from="40668087#1" to="337277973#1" type="car" begin="28000" end="38000" vehsPerHour="65"/>
    <flow id="f43" from="40668087#1" to="337277984#0" type="car" begin="28000" end="38000" vehsPerHour="65"/>
    <flow id="f44" from="40668087#1" to="337277970#1" type="car" begin="28000" end="38000" vehsPerHour="65"/>
    <flow id="f45" from="40668087#1" to="337277951#1" type="car" begin="28000" end="38000" vehsPerHour="65"/>
    <flow id="f46" from="49217102" to="337277951#3" type="car" begin="28000" end="38000" vehsPerHour="65"/>
    <flow id="f47" from="49217102" to="1053072563" type="car" begin="28000" end="38000" vehsPerHour="65"/>
    <flow id="f48" from="49217102" to="337277973#1" type="car" begin="28000" end="38000" vehsPerHour="65"/>
    <flow id="f49" from="49217102" to="337277984#0" type="car" begin="28000" end="38000" vehsPerHour="65"/>
    <flow id="f50" from="49217102" to="542428845#0" type="car" begin="28000" end="38000" vehsPerHour="65"/>
    <flow id="f51" from="42143912#5" to="337277957#0" type="car" begin="28000" end="38000" vehsPerHour="65"/>
    <flow id="f52" from="42143912#5" to="542428845#0" type="car" begin="28000" end="38000" vehsPerHour="65"/>
    <flow id="f53" from="42143912#5" to="1053072563" type="car" begin="28000" end="38000" vehsPerHour="65"/>
    <flow id="f54" from="42143912#5" to="337277973#1" type="car" begin="28000" end="38000" vehsPerHour="65"/>
    <flow id="f55" from="567060342#0" to="337277984#0" type="car" begin="28000" end="38000" vehsPerHour="65"/>
    <flow id="f56" from="567060342#0" to="542428845#0" type="car" begin="28000" end="38000" vehsPerHour="65"/>
    <flow id="f57" from="567060342#0" to="337277957#0" type="car" begin="28000" end="38000" vehsPerHour="65"/>
</routes>